01REMESSA01COBRANCA       916200163100        União Umb dos Cultos Afro Bra341BANCO ITAU SA  030719                                                                                                                                                                                                                                                                                                      000001
10231987175000168916200163100    000049866                    000498660000000000000109                     I0149866     05071900000000020003410000017N030719105700000000000700507190000000000000000000000000000000000000000100069085986753CARMEM PIRES DE SOUZA                   PRAIA BOTAFOGON 460, APT 1138           BOTAFOGO    22250040RIO DE JANEIRO RJUNIAO UMB DOS CULTOS AFRO BRAS    05071915 000002
21050720190000000000040                                                                                                                                                                                                                                                                                                                                                                                   000003
10231987175000168916200163100    000049865                    000498650000000000000109                     I0149865     30091900000000040003410000017N030719105700000000000133009190000000000000000000000000000000000000000100012465057707EMMANUELLE LEMOS CARVALHO ANDR          RUA PADRE TELEMACON 195,                CASCADURA   21311050RIO DE JANEIRO RJUNIAO UMB DOS CULTOS AFRO BRAS    30091915 000004
21300920190000000000080                                                                                                                                                                                                                                                                                                                                                                                   000005
10231987175000168916200163100    000049864                    000498640000000000000109                     I0149864     30081900000000040003410000017N030719105700000000000133008190000000000000000000000000000000000000000100012465057707EMMANUELLE LEMOS CARVALHO ANDR          RUA PADRE TELEMACON 195,                CASCADURA   21311050RIO DE JANEIRO RJUNIAO UMB DOS CULTOS AFRO BRAS    30081915 000006
21300820190000000000080                                                                                                                                                                                                                                                                                                                                                                                   000007
9                                                                                                                                                                                                                                                                                                                                                                                                         000008
